tests/fuzzer/corpus_json/21_random_032.json
{
  "version": "1.0",
  "type": "input",
  "is_batch": false,
  "attributes": {},
  "data": {
    "node": [
      {
        "id": 0,
        "u_rated": 400.0
      },
      {
        "id": 1,
        "u_rated": 400.0
      },
      {
        "id": 2,
        "u_rated": 400.0
      }
    ],
    "source": [
      {
        "id": 3,
        "node": 0,
        "status": 1,
        "u_ref": 1.039670793563446,
        "u_ref_angle": 0.0,
        "sk": 144730602.82094792,
        "rx_ratio": 0.11889748087619428,
        "z01_ratio": 1.0
      },
      {
        "id": 4,
        "node": 2,
        "status": 1,
        "u_ref": 1.0,
        "u_ref_angle": 0.0,
        "sk": 38646418.30344002,
        "rx_ratio": 0.1,
        "z01_ratio": 1.0
      }
    ],
    "line": [
      {
        "id": 5,
        "from_node": 0,
        "to_node": 1,
        "from_status": 1,
        "to_status": 1,
        "r1": 1.6236018951582554,
        "x1": 1.6517054976177559,
        "c1": 5.7062473317975533e-08,
        "tan1": 0.0,
        "r0": 0.3,
        "x0": 0.3,
        "c0": 1e-09,
        "tan0": 0.0,
        "i_n": 693.6616189424227
      },
      {
        "id": 6,
        "from_node": 1,
        "to_node": 2,
        "from_status": 1,
        "to_status": 1,
        "r1": 4.963303017683332,
        "x1": 2.3438547689825544,
        "c1": 6.012122705634391e-07,
        "tan1": 0.0,
        "r0": 0.3,
        "x0": 0.3,
        "c0": 1e-09,
        "tan0": 0.0,
        "i_n": 546.9854789056965
      }
    ],
    "sym_load": [
      {
        "id": 7,
        "node": 2,
        "status": 1,
        "type": 1,
        "p_specified": 46136.83040886195,
        "q_specified": 6856.83909102753
      }
    ]
  }
}